[TITLE]


[JUNCTIONS]
;ID              	Elev        	Demand      	Pattern         
 1               	121.151902  	0.039126648227	1               	;
 2               	119.59618139	8.3339760723	1               	;
 11              	117.15485773	0.2934498617	1               	;
 23              	118.82884718	8.099216183 	1               	;
 27              	152.62372446	0.039126648227	1               	;
 28              	147.11389808	0           	1               	;
 29              	116.62028704	0.74340631631	1               	;
 30              	116.31112816	0.15650659291	1               	;
 31              	116.74292832	0.91947623333	1               	;
 35              	118.22017516	3.9517914709	1               	;
 37              	112.54073783	0           	1               	;
 38              	112.08854531	0.31301318582	1               	;
 43              	117.53722811	0.50864642695	1               	;
 59              	116.83591964	0.78253296454	1               	;
 73              	149.35479365	0.11737994468	1               	;
 76              	111.90429018	0.15650659291	1               	;
 78              	110.86124385	0.11737994468	1               	;
 79              	117.20110676	0.4303931305	1               	;
 84              	112.06083952	0.039126648227	1               	;
 95              	148.17735511	0           	1               	;
 98              	148.29071605	0           	1               	;
 105             	112.12862457	0.039126648227	1               	;
 109             	116.19107007	0.35213983404	1               	;
 113             	125.94139999	0.11737994468	1               	;
 114             	128.4984905 	0.11737994468	1               	;
 115             	117.15619377	0.7238429922	1               	;
 116             	117.24050433	1.9954590596	1               	;
 119             	117.16367516	0           	1               	;
 123             	127.31696965	0           	1               	;
 125             	116.84245048	1.1737994468	1               	;
 131             	133.78181598	1.1151094745	1               	;
 132             	128.44025734	0.039126648227	1               	;
 135             	116.76359197	6.6515301986	1               	;
 139             	116.9440706 	3.7170315816	1               	;
 143             	149.21306817	0           	1               	;
 146             	148.57916416	4.7343244355	1               	;
 147             	146.64923889	1.1542361227	1               	;
 151             	139.98115916	0.84122293688	1               	;
 155             	116.05578519	2.0150223837	1               	;
 157             	118.5425535 	0.15650659291	1               	;
 162             	118.57677356	0           	1               	;
 164             	142.71568713	0.23475988936	1               	;
 167             	149.84333885	0           	1               	;
 173             	143.22787356	0.13694326879	1               	;
 177             	133.20193738	3.4822716922	1               	;
 179             	116.76363531	4.0104814433	1               	;
 185             	142.44553542	0.078253296454	1               	;
 189             	143.50729256	0.15650659291	1               	;
 195             	143.09982483	2.1519656525	1               	;
 199             	119.81165812	0.05868997234	1               	;
 205             	146.99758483	0.25432321348	1               	;
 217             	115.14558667	2.7193020518	1               	;
 219             	115.35683442	1.8585157908	1               	;
 223             	139.41097454	1.6824458738	1               	;
 227             	142.1266759 	1.3694326879	1               	;
 232             	126.57063886	0.13694326879	1               	;
 240             	112.78272192	0.46951977872	1               	;
 242             	139.35776289	0.23475988936	1               	;
 245             	144.75626558	0.078253296454	1               	;
 249             	154.01666029	1.721572522 	1               	;
 250             	153.84128661	0.97816620567	1               	;
 252             	112.55490313	0.97816620567	1               	;
 255             	113.34280687	0           	1               	;
 256             	113.37545819	0           	1               	;
 257             	143.38658305	0.66515301986	1               	;
 263             	113.82987396	0.05868997234	1               	;
 267             	112.06232957	0.56733639929	1               	;
 275             	113.86057053	0.66515301986	1               	;
 280             	138.59563466	1.1151094745	1               	;
 289             	143.21946399	3.0518785617	1               	;
 291             	118.74283731	2.9149352929	1               	;
 293             	114.68816519	0.13694326879	1               	;
 299             	146.19484794	0.11737994468	1               	;
 301             	124.73670125	0           	1               	;
 304             	113.57594475	0.039126648227	1               	;
 309             	151.11444981	3.0910052099	1               	;
 318             	143.87820854	1.0759828262	1               	;
 320             	113.97159908	1.4868126326	1               	;
 321             	143.00468077	0.93903955745	1               	;
 327             	150.10167676	3.8148482021	1               	;
 331             	116.60705301	0.39126648227	1               	;
 346             	131.24184736	0           	1               	;
 354             	131.12043258	0.64558969574	1               	;
 357             	125.1032322 	0.25432321348	1               	;
 360             	124.90052357	0.35213983404	1               	;
 361             	125.24176546	0           	1               	;
 369             	115.89446401	0.48908310284	1               	;
 374             	111.87159521	0.35213983404	1               	;
 375             	146.0085045 	0.15650659291	1               	;
 376             	150.0233289 	0.11737994468	1               	;
 378             	124.67859731	0.019563324113	1               	;
 380             	145.62071032	0.37170315816	1               	;
 381             	145.41302165	3.4627083681	1               	;
 385             	147.21145718	0           	1               	;
 393             	137.01132192	2.1715289766	1               	;
 398             	111.9241139 	0.019563324113	1               	;
 401             	116.05070902	0.41082980638	1               	;
 405             	134.0291342 	0.74340631631	1               	;
 409             	116.09517304	0.2934498617	1               	;
 417             	113.19898491	0.13694326879	1               	;
 425             	133.42239795	0.86078626099	1               	;
 431             	119.07835641	0           	1               	;
 435             	131.64603548	0.48908310284	1               	;
 450             	146.224607  	0.82165961277	1               	;
 453             	133.33595533	1.036856178 	1               	;
 461             	115.07585946	0.31301318582	1               	;
 465             	145.39253929	1.3694326879	1               	;
 490             	130.81372279	0.05868997234	1               	;
 491             	115.40616673	0.4303931305	1               	;
 494             	130.36847886	0.31301318582	1               	;
 498             	115.97773735	9.8794786773	1               	;
 501             	143.51971199	1.212926095 	1               	;
 511             	115.62691041	0.37170315816	1               	;
 530             	125.91920031	1.0759828262	1               	;
 533             	142.67362946	0.89991290922	1               	;
 557             	115.23345626	0.70427966808	1               	;
 568             	124.62254252	1.1933627709	1               	;
 570             	120.07358147	2.9931885894	1               	;
 583             	138.91366223	0.5868997234	1               	;
 591             	138.61251137	0.62602637163	1               	;
 597             	115.58314719	1.2520527433	1               	;
 602             	121.63680492	0.82165961277	1               	;
 605             	120.54468907	0.89991290922	1               	;
 612             	125.5547156 	0.097816620567	1               	;
 619             	121.76062809	0           	1               	;
 630             	135.98072967	0.4303931305	1               	;
 637             	116.13695791	3.0714418858	1               	;
 639             	122.88154559	0           	1               	;
 642             	122.08183919	0.039126648227	1               	;
 648             	123.14052122	0.19563324113	1               	;
 653             	128.31575365	0           	1               	;
 657             	115.51568073	2.0345857078	1               	;
 666             	135.90274121	2.3671622177	1               	;
 669             	127.889727  	0           	1               	;
 673             	115.84231711	2.0541490319	1               	;
 674             	115.82142079	0.95860288156	1               	;
 679             	123.08524779	0           	1               	;
 680             	124.87300582	0.99772952979	1               	;
 687             	138.7966228 	0.78253296454	1               	;
 700             	125.8366199 	1.3498693638	1               	;
 709             	135.29488824	1.4868126326	1               	;
 719             	130.93622478	0           	1               	;
 727             	145.71903091	1.0759828262	1               	;
 731             	117.75989126	1.5063759567	1               	;
 735             	138.08385842	0.60646304752	1               	;
 747             	122.1205886 	0.05868997234	1               	;
 750             	123.5830735 	0.019563324113	1               	;
 751             	122.21314542	0           	1               	;
 754             	123.4277337 	0           	1               	;
 757             	118.57464806	2.5432321348	1               	;
 758             	114.4476479 	1.8389524667	1               	;
 759             	119.44563135	0.13694326879	1               	;
 763             	128.36734279	0.48908310284	1               	;
 765             	121.00010482	0           	1               	;
 767             	122.93099358	0.19563324113	1               	;
 773             	134.05419753	0.097816620567	1               	;
 777             	132.37556722	0           	1               	;
 781             	129.13673971	0.19563324113	1               	;
 795             	139.76445654	0.88034958511	1               	;
 805             	123.45288685	0.019563324113	1               	;
 811             	123.39302938	0.17606991702	1               	;
 814             	121.4079508 	0.21519656525	1               	;
 815             	119.10364977	0.31301318582	1               	;
 834             	115.63468422	1.8780791149	1               	;
 839             	124.87337898	0.93903955745	1               	;
 843             	122.55375338	0.097816620567	1               	;
 845             	119.92078394	0.5868997234	1               	;
 851             	136.77458726	0.17606991702	1               	;
 855             	113.92285968	1.1151094745	1               	;
 868             	146.11752794	0.93903955745	1               	;
 873             	144.95286172	1.9367690872	1               	;
 874             	148.10341934	5.3994774553	1               	;
 879             	114.06158382	0.097816620567	1               	;
 883             	145.56903942	1.6824458738	1               	;
 886             	122.2511292 	0           	1               	;
 887             	141.40856117	0.95860288156	1               	;
 901             	120.21336052	0.5868997234	1               	;
 903             	125.07805124	0.5868997234	1               	;
 909             	149.95147787	0.52820975106	1               	;
 911             	150.17105021	0.46951977872	1               	;
 917             	137.67303653	0           	1               	;
 921             	135.87354035	0           	1               	;
 929             	144.79188058	2.4258521901	1               	;
 931             	120.8191328 	0           	1               	;
 932             	132.15084217	0.039126648227	1               	;
 937             	146.81609092	0.44995645461	1               	;
 942             	142.40456611	1.6824458738	1               	;
 945             	141.89821784	1.8585157908	1               	;
 949             	124.71373826	0.039126648227	1               	;
 953             	141.08160245	1.3303060397	1               	;
 958             	120.59927314	0.31301318582	1               	;
 961             	139.03133377	2.9931885894	1               	;
 967             	117.07718473	0.13694326879	1               	;
 973             	138.17525385	4.8908310284	1               	;
 977             	136.03167769	3.5213983404	1               	;
 983             	131.73595976	2.2302189489	1               	;
 1001            	133.53983007	0.039126648227	1               	;
 1011            	136.9385448 	0.23475988936	1               	;
 1015            	124.2278923 	0.019563324113	1               	;
 1020            	117.65501547	1.8389524667	1               	;
 1021            	134.65953778	1.8389524667	1               	;
 1025            	143.30022667	0.80209628865	1               	;
 1035            	135.58855571	0.44995645461	1               	;
 1041            	143.79832451	0.50864642695	1               	;
 1057            	143.83426797	1.2716160674	1               	;
 1059            	136.99296027	0.54777307518	1               	;
 1063            	141.80767169	1.1151094745	1               	;
 1067            	133.12189272	0.97816620567	1               	;
 1071            	117.60452564	0           	1               	;
 1077            	116.84645028	0.62602637163	1               	;
 1078            	117.78482175	0           	1               	;
 1086            	140.47933588	0.70427966808	1               	;
 1091            	120.92923092	0.54777307518	1               	;
 1096            	139.85446608	3.5018350163	1               	;
 1101            	136.35716052	1.036856178 	1               	;
 1106            	134.99982178	1.9563324113	1               	;
 1111            	134.27452079	1.7020091979	1               	;
 1116            	117.17273005	1.3694326879	1               	;
 1120            	117.18162121	0           	1               	;
 1122            	141.68643837	1.9758957355	1               	;
 1127            	138.04452592	1.2716160674	1               	;
 1131            	114.97977598	1.3694326879	1               	;
 1133            	134.78569223	2.5236688106	1               	;
 1135            	135.57673376	0.93903955745	1               	;
 1141            	135.45615368	1.545502605 	1               	;
 1151            	135.93379853	2.3475988936	1               	;
 1165            	136.80803263	0.60646304752	1               	;
 1168            	118.27292316	0.93903955745	1               	;
 1172            	146.76627379	1.8780791149	1               	;
 1183            	122.96156819	1.4476859844	1               	;
 1194            	142.01624049	0.46951977872	1               	;
 1198            	117.87131795	0.23475988936	1               	;
 1203            	136.33358639	0.66515301986	1               	;
 1208            	119.61918721	0.64558969574	1               	;
 1211            	136.27906097	0.039126648227	1               	;
 1221            	125.60589137	0.97816620567	1               	;
 1223            	114.42353117	0.27388653759	1               	;
 1227            	119.92055896	0.23475988936	1               	;
 1245            	137.59332069	2.6410487553	1               	;
 1260            	119.18070749	0.95860288156	1               	;
 1261            	118.73275268	0.91947623333	1               	;
 1262            	115.32671383	0.31301318582	1               	;
 1264            	116.82934253	0.88034958511	1               	;
 1265            	120.15043698	0.25432321348	1               	;
 1270            	118.9631193 	0.46951977872	1               	;
 1271            	136.13709206	1.3694326879	1               	;
 1279            	142.81908602	5.5168574   	1               	;
 1280            	126.30476046	0.15650659291	1               	;
 1281            	124.06430675	0.62602637163	1               	;
 1299            	120.58276525	0           	1               	;
 1300            	120.65933184	0.46951977872	1               	;
 1303            	120.15110133	0           	1               	;
 1319            	139.91681474	0.078253296454	1               	;
 1339            	137.53431269	1.5063759567	1               	;
 1345            	115.58294436	0.15650659291	1               	;
 1347            	139.04002365	0.15650659291	1               	;
 1355            	138.44917902	0.89991290922	1               	;
 1358            	142.52441808	0.80209628865	1               	;
 1361            	127.3681672 	0.11737994468	1               	;
 1368            	125.59380696	0.11737994468	1               	;
 1369            	137.30498347	0.56733639929	1               	;
 1377            	127.2162956 	0.86078626099	1               	;
 1378            	139.52982402	0.078253296454	1               	;
 1384            	136.54018837	0.039126648227	1               	;
 1385            	138.0959199 	2.5041054865	1               	;
 1400            	115.24007217	0.4303931305	1               	;
 1401            	138.96608839	0.27388653759	1               	;
 1415            	127.20711783	0.41082980638	1               	;
 1417            	137.71199678	1.9367690872	1               	;
 1435            	135.81868837	4.1865513603	1               	;
 1445            	138.79337505	0.097816620567	1               	;
 1450            	127.1172587 	0           	1               	;
 1452            	114.27297061	0           	1               	;
 1457            	129.81459588	0.88034958511	1               	;
 1471            	138.41286768	0.078253296454	1               	;
 1477            	138.38870911	0           	1               	;
 1485            	136.47196375	1.4281226603	1               	;
 1497            	135.84515826	1.5063759567	1               	;
 1501            	133.33257255	0           	1               	;
 1510            	119.94807866	0.54777307518	1               	;
 1516            	113.31681411	0           	1               	;
 1518            	118.47103891	0.62602637163	1               	;
 1529            	143.8652535 	0.41082980638	1               	;
 1531            	136.50538992	0           	1               	;
 1532            	138.5433477 	0.078253296454	1               	;
 1539            	134.78278853	1.4868126326	1               	;
 1551            	135.42388178	1.0759828262	1               	;
 1555            	137.45901461	0           	1               	;
 1559            	130.15563678	1.5063759567	1               	;
 1563            	134.87884922	2.9149352929	1               	;
 1568            	139.99230439	2.6214854312	1               	;
 1573            	136.96867504	0           	1               	;
 1575            	136.38420298	0.039126648227	1               	;
 1587            	134.50182685	1.1933627709	1               	;
 1601            	134.65477619	1.4085593362	1               	;
 1605            	133.7144699 	1.4281226603	1               	;
 1609            	137.00144566	0.41082980638	1               	;
 1611            	135.91235246	0.33257650993	1               	;
 1614            	117.26640747	0           	1               	;
 1622            	112.65946868	0           	1               	;
 1625            	136.42851412	1.3889960121	1               	;
 1637            	134.19894252	0.7238429922	1               	;
 1641            	136.66548891	0.99772952979	1               	;
 1643            	135.53121562	1.2520527433	1               	;
 1651            	136.49775596	2.3280355695	1               	;
 1654            	117.68622493	0           	1               	;
 1655            	133.94202681	0.60646304752	1               	;
 1659            	134.18759874	0.93903955745	1               	;
 1663            	133.87995163	0.62602637163	1               	;
 1671            	136.84456767	0.039126648227	1               	;
 1673            	136.52219724	0.93903955745	1               	;
 1679            	134.42661373	0.60646304752	1               	;
 1691            	135.17879999	0           	1               	;
 1695            	133.92300715	0.64558969574	1               	;
 1703            	135.64396353	0.91947623333	1               	;
 1707            	134.89384627	0.44995645461	1               	;
 1715            	135.54451542	0           	1               	;
 1731            	134.71649128	0.66515301986	1               	;
 1735            	136.08041238	1.3889960121	1               	;
 1741            	134.65883005	0.31301318582	1               	;
 1747            	135.57642637	0.19563324113	1               	;
 1750            	120.67668501	0           	1               	;
 1761            	134.48247104	0           	1               	;
 1763            	136.48145265	0           	1               	;
 1767            	134.80078431	0.74340631631	1               	;
 1771            	135.11557864	0.39126648227	1               	;
 1775            	134.893413  	0.60646304752	1               	;
 1781            	135.07211202	0.15650659291	1               	;
 1785            	135.79511187	0.68471634397	1               	;
 1789            	134.76431652	0.62602637163	1               	;
 1793            	135.43241378	0.31301318582	1               	;
 1796            	135.88055168	0           	1               	;
 1801            	134.83461442	0.5868997234	1               	;
 1809            	135.41330222	0.78253296454	1               	;
 1814            	135.50839218	0.15650659291	1               	;
 1818            	135.60787322	0.25432321348	1               	;
 1819            	135.87032501	0.2934498617	1               	;
 1822            	136.02362707	0.097816620567	1               	;
 1824            	137.73735059	0.15650659291	1               	;
 1827            	136.61222585	0           	1               	;
 1831            	134.389206  	0.23475988936	1               	;
 1834            	135.97697595	0.88034958511	1               	;
 1838            	136.59635417	0.2934498617	1               	;
 1845            	135.26610679	0.7238429922	1               	;
 1850            	137.69025517	0.56733639929	1               	;
 1856            	136.36488459	1.3303060397	1               	;
 1859            	118.64252253	0.078253296454	1               	;
 1861            	135.33294106	3.7757215539	1               	;
 1866            	136.5626951 	0.86078626099	1               	;
 1870            	112.81970249	0.05868997234	1               	;
 1874            	138.66540662	2.0541490319	1               	;
 1875            	135.45728376	0.68471634397	1               	;
 1882            	111.88605122	0           	1               	;
 1884            	134.80936714	0.52820975106	1               	;
 1888            	144.25203087	4.0887347397	1               	;
 1890            	143.1379326 	0.74340631631	1               	;
 1895            	135.56436846	0.25432321348	1               	;
 1896            	135.83767606	1.4868126326	1               	;
 1899            	134.85211532	0.62602637163	1               	;
 1904            	135.07730323	0.019563324113	1               	;
 1910            	136.72713191	0.76296964043	1               	;
 1914            	134.60284354	0           	1               	;
 1922            	135.58185247	0           	1               	;
 1925            	135.30539964	0           	1               	;
 1935            	135.23371947	0.15650659291	1               	;
 1944            	135.76740399	0.48908310284	1               	;
 1948            	153.22067171	5.8885605582	1               	;
 1950            	151.52892812	0.15650659291	1               	;
 1955            	134.45267101	0           	1               	;
 1957            	135.49337188	0           	1               	;
 1963            	135.60064229	0           	1               	;
 1971            	135.22001194	0.2934498617	1               	;
 1973            	133.3807561 	0           	1               	;
 1980            	136.55250866	0.25432321348	1               	;
 1985            	123.49497243	1.6433192255	1               	;
 1987            	142.85175245	1.1151094745	1               	;
 1994            	137.97543592	0.95860288156	1               	;
 1995            	136.47763684	0           	1               	;
 2000            	150.46189109	0.039126648227	1               	;
 2001            	134.57318307	0.5868997234	1               	;
 2005            	137.19491074	0.019563324113	1               	;
 2007            	135.2046464 	0.41082980638	1               	;
 2011            	151.59297667	1.6628825496	1               	;
 2019            	134.42850304	0.54777307518	1               	;
 2029            	134.64374677	0.13694326879	1               	;
 2031            	134.87072479	0.2934498617	1               	;
 2036            	130.49037354	0.19563324113	1               	;
 2049            	134.46557971	0.46951977872	1               	;
 2053            	133.67587664	0.48908310284	1               	;
 2058            	135.66471655	2.8758086447	1               	;
 2061            	128.7668035 	0           	1               	;
 2063            	128.57175772	0           	1               	;
 2065            	128.72960565	0           	1               	;
 2073            	132.98958263	0.46951977872	1               	;
 2077            	133.6545063 	0.11737994468	1               	;
 2082            	150.38352178	0.078253296454	1               	;
 2083            	123.1013766 	0.23475988936	1               	;
 2091            	134.40865246	0.48908310284	1               	;
 2095            	133.07766491	0.25432321348	1               	;
 2099            	135.94359587	0.31301318582	1               	;
 2103            	142.77879666	5.6146740206	1               	;
 2105            	128.35836638	0.23475988936	1               	;
 2107            	133.69336638	0.60646304752	1               	;
 2113            	131.09826097	0.62602637163	1               	;
 2118            	133.39725201	0.15650659291	1               	;
 2121            	132.38309901	2.6214854312	1               	;
 2122            	134.73291022	4.4408745738	1               	;
 2127            	126.29571703	0.76296964043	1               	;
 2131            	123.08693942	1.2716160674	1               	;
 2134            	132.94781985	1.1542361227	1               	;
 2135            	139.30319092	2.1128390043	1               	;
 2136            	140.75906827	0.78253296454	1               	;
 2139            	129.58540313	0.05868997234	1               	;
 2142            	129.58033897	0.56733639929	1               	;
 2151            	133.4367411 	0.56733639929	1               	;
 2155            	131.37675032	1.2911793915	1               	;
 2161            	134.18036829	0.54777307518	1               	;
 2165            	136.55801815	2.4258521901	1               	;
 2169            	130.25204985	0.7238429922	1               	;
 2171            	131.31580671	0.48908310284	1               	;
 2176            	130.86533498	0.078253296454	1               	;
 2177            	134.04426748	0.11737994468	1               	;
 2180            	134.96198932	0.15650659291	1               	;
 2184            	135.09969524	1.9758957355	1               	;
 2191            	130.33690873	0.11737994468	1               	;
 2194            	132.41450162	0.37170315816	1               	;
 2198            	136.33849453	0           	1               	;
 2202            	138.98586133	0.078253296454	1               	;
 2204            	130.87997867	1.4281226603	1               	;
 2208            	137.6967702 	0           	1               	;
 2213            	142.41256396	0.7238429922	1               	;
 2215            	132.15721569	0           	1               	;
 2219            	134.46660516	0           	1               	;
 2223            	132.08146416	1.2324894191	1               	;
 2227            	132.63545849	0           	1               	;
 2231            	130.45587317	0.54777307518	1               	;
 2235            	135.87608087	0           	1               	;
 2239            	130.33388866	1.212926095 	1               	;
 2243            	134.51136736	0.41082980638	1               	;
 2245            	122.91816014	0.23475988936	1               	;
 2248            	125.73556314	0.21519656525	1               	;
 2249            	137.06692389	0.21519656525	1               	;
 2253            	128.39742106	1.3498693638	1               	;
 2258            	129.51455939	0           	1               	;
 2263            	127.27053159	0.46951977872	1               	;
 2265            	122.39638567	0.05868997234	1               	;
 2267            	136.84724842	0.19563324113	1               	;
 2270            	122.64557743	0           	1               	;
 2273            	130.14309543	0.62602637163	1               	;
 2280            	128.47904255	0.39126648227	1               	;
 2283            	125.87665749	3.3062017752	1               	;
 2288            	146.05139863	2.0541490319	1               	;
 2289            	146.08585212	0.05868997234	1               	;
 2291            	134.12121933	0           	1               	;
 2294            	131.42164684	0           	1               	;
 2296            	130.16596046	0.93903955745	1               	;
 2297            	122.47957995	0.88034958511	1               	;
 2302            	145.21788498	3.5800883128	1               	;
 2303            	146.60649224	4.7734510837	1               	;
 2306            	119.76998978	0           	1               	;
 2308            	119.10845195	0.05868997234	1               	;
 2309            	132.0579898 	0           	1               	;
 2312            	120.35092327	0           	1               	;
 2316            	132.45345193	0           	1               	;
 2317            	128.18625592	0.15650659291	1               	;
 2318            	128.40929691	1.1933627709	1               	;
 2323            	131.35436484	0           	1               	;
 2325            	129.62354112	0.33257650993	1               	;
 2329            	127.37755938	0.76296964043	1               	;
 2332            	128.90815315	1.1542361227	1               	;